Circuit: * C:\Users\WARITON\Documents\Wariton\ARQUIVOS MESTRADO\filtro passa baixa RC.asc

Direct Newton iteration for .op point succeeded.

Date: Thu Jul 23 09:30:52 2020
Total elapsed time: 0.134 seconds.

tnom = 27
temp = 27
method = modified trap
totiter = 2771
traniter = 2768
tranpoints = 1385
accept = 1329
rejected = 56
matrix size = 3
fillins = 0
solver = Normal
Matrix Compiler1: 50 bytes object code size  0.1/0.1/[0.1]
Matrix Compiler2: 175 bytes object code size  0.1/0.1/[0.1]


