Stray ".ends" card: .ends
Circuit: * C:\Users\WARITON\Documents\Wariton\ARQUIVOS MESTRADO\LIN LOG 2014 1.asc

Warning: LTspice supports BSIM3 version 3.3.0. Your model specified an unrecognized version: 3.11
Warning: Pd = 0 is less than W.
Warning: Ps = 0 is less than W.
Direct Newton iteration for .op point succeeded.

Date: Mon Aug 17 13:11:02 2020
Total elapsed time: 0.149 seconds.

tnom = 27
temp = 27
method = modified trap
totiter = 4185
traniter = 4169
tranpoints = 2008
accept = 1824
rejected = 184
matrix size = 11
fillins = 0
solver = Normal
Matrix Compiler1: 378 bytes object code size  0.2/0.1/[0.1]
Matrix Compiler2: off  [0.1]/0.2/0.2


