Stray ".ends" card: .ends
Circuit: * C:\Users\WARITON\Documents\Wariton\ARQUIVOS MESTRADO\LIN LOG rdr e rst novo.asc

Warning: LTspice supports BSIM3 version 3.3.0. Your model specified an unrecognized version: 3.11
Warning: Pd = 0 is less than W.
Warning: Ps = 0 is less than W.
Warning: LTspice supports BSIM3 version 3.3.0. Your model specified an unrecognized version: 3.11
Warning: Pd = 0 is less than W.
Warning: Ps = 0 is less than W.
Direct Newton iteration for .op point succeeded.

Date: Thu Jan 14 09:06:42 2021
Total elapsed time: 0.406 seconds.

tnom = 27
temp = 27
method = modified trap
totiter = 4083
traniter = 4061
tranpoints = 1763
accept = 1573
rejected = 190
matrix size = 20
fillins = 2
solver = Normal
Matrix Compiler1: 2,14 KB object code size  0.9/0.5/[0.4]
Matrix Compiler2: 1,98 KB object code size  0.5/0.5/[0.4]


