Circuit: * C:\Users\WARITON\Documents\Wariton\ARQUIVOS MESTRADO\LIN LOG 2014 (mostrar na reuniao).asc

Instance "m3": Length shorter than recommended for a level 1 MOSFET.
Instance "m3": Width narrower than recommended for a level 1 MOSFET.
Instance "m2": Length shorter than recommended for a level 1 MOSFET.
Instance "m2": Width narrower than recommended for a level 1 MOSFET.
Instance "m1": Length shorter than recommended for a level 1 MOSFET.
Instance "m1": Width narrower than recommended for a level 1 MOSFET.
Direct Newton iteration for .op point succeeded.
.step run=1
.step run=2
.step run=3
.step run=4
.step run=5
.step run=6
.step run=7
.step run=8
.step run=9
.step run=10
.step run=11
.step run=12
.step run=13
.step run=14
.step run=15
.step run=16
.step run=17
.step run=18
.step run=19
.step run=20
.step run=21
.step run=22
.step run=23
.step run=24
.step run=25
.step run=26
.step run=27
.step run=28
.step run=29
.step run=30
.step run=31
.step run=32
.step run=33
.step run=34
.step run=35
.step run=36
.step run=37
.step run=38
.step run=39
.step run=40
.step run=41
.step run=42
.step run=43
.step run=44
.step run=45
.step run=46
.step run=47
.step run=48
.step run=49
.step run=50


Measurement: result_out
  step	v(vsn)	at
     1	1.4	0.0009
     2	1.39999	0.0009
     3	1.4	0.0009
     4	1.4	0.0009
     5	1.4	0.0009
     6	1.39999	0.0009
     7	1.4	0.0009
     8	1.4	0.0009
     9	1.4	0.0009
    10	1.4	0.0009
    11	1.4	0.0009
    12	1.4	0.0009
    13	1.4	0.0009
    14	1.4	0.0009
    15	1.4	0.0009
    16	1.4	0.0009
    17	1.4	0.0009
    18	1.4	0.0009
    19	1.4	0.0009
    20	1.4	0.0009
    21	1.4	0.0009
    22	1.4	0.0009
    23	1.4	0.0009
    24	1.4	0.0009
    25	1.4	0.0009
    26	1.4	0.0009
    27	1.4	0.0009
    28	1.4	0.0009
    29	1.4	0.0009
    30	1.4	0.0009
    31	1.4	0.0009
    32	1.4	0.0009
    33	1.4	0.0009
    34	1.4	0.0009
    35	1.4	0.0009
    36	1.4	0.0009
    37	1.39999	0.0009
    38	1.4	0.0009
    39	1.4	0.0009
    40	1.4	0.0009
    41	1.39999	0.0009
    42	1.4	0.0009
    43	1.4	0.0009
    44	1.40001	0.0009
    45	1.40001	0.0009
    46	1.4	0.0009
    47	1.4	0.0009
    48	1.4	0.0009
    49	1.4	0.0009
    50	1.4	0.0009


Date: Wed Jul 08 09:14:03 2020
Total elapsed time: 30.497 seconds.

tnom = 27
temp = 27
method = modified trap
totiter = 3496
traniter = 3479
tranpoints = 1698
accept = 1579
rejected = 119
matrix size = 11
fillins = 0
solver = Normal
Matrix Compiler1: 378 bytes object code size  0.3/0.2/[0.1]
Matrix Compiler2: 807 bytes object code size  0.2/0.3/[0.2]


