Stray ".ends" card: .ends
Circuit: * C:\Users\WARITON\Documents\Wariton\ARQUIVOS MESTRADO\LIN LOG.asc

Warning: LTspice supports BSIM3 version 3.3.0. Your model specified an unrecognized version: 3.11
Warning: Pd = 0 is less than W.
Warning: Ps = 0 is less than W.
Direct Newton iteration for .op point succeeded.

Date: Mon Jan 25 16:46:57 2021
Total elapsed time: 0.240 seconds.

tnom = 27
temp = 27
method = modified trap
totiter = 3509
traniter = 3493
tranpoints = 1678
accept = 1522
rejected = 156
matrix size = 11
fillins = 0
solver = Normal
Matrix Compiler1: 378 bytes object code size  0.2/0.1/[0.1]
Matrix Compiler2: 807 bytes object code size  0.1/0.2/[0.1]


