Circuit: * C:\Users\WARITON\Documents\Wariton\ARQUIVOS MESTRADO\LIN LOG 2014 Resistor (mostrar na reuniao).asc

Instance "m3": Length shorter than recommended for a level 1 MOSFET.
Instance "m3": Width narrower than recommended for a level 1 MOSFET.
Instance "m2": Length shorter than recommended for a level 1 MOSFET.
Instance "m2": Width narrower than recommended for a level 1 MOSFET.
Instance "m1": Length shorter than recommended for a level 1 MOSFET.
Instance "m1": Width narrower than recommended for a level 1 MOSFET.
Direct Newton iteration for .op point succeeded.
.step run=1
.step run=2
.step run=3
.step run=4
.step run=5
.step run=6
.step run=7
.step run=8
.step run=9
.step run=10
.step run=11
.step run=12
.step run=13
.step run=14
.step run=15
.step run=16
.step run=17
.step run=18
.step run=19
.step run=20


Measurement: result_out
  step	v(n001)	at
     1	3.3	0.0008
     2	3.3	0.0008
     3	3.3	0.0008
     4	3.3	0.0008
     5	3.3	0.0008
     6	3.3	0.0008
     7	3.3	0.0008
     8	3.3	0.0008
     9	3.3	0.0008
    10	3.3	0.0008
    11	3.3	0.0008
    12	3.3	0.0008
    13	3.3	0.0008
    14	3.3	0.0008
    15	3.3	0.0008
    16	3.3	0.0008
    17	3.3	0.0008
    18	3.3	0.0008
    19	3.3	0.0008
    20	3.3	0.0008


Date: Wed Jul 29 15:12:07 2020
Total elapsed time: 3.856 seconds.

tnom = 27
temp = 27
method = modified trap
totiter = 3149
traniter = 3132
tranpoints = 1525
accept = 1442
rejected = 83
matrix size = 14
fillins = 0
solver = Normal
Matrix Compiler1: 456 bytes object code size  0.3/0.1/[0.1]
Matrix Compiler2: 972 bytes object code size  0.2/0.2/[0.2]


