Stray ".ends" card: .ends
Circuit: * C:\Users\WARITON\Documents\Wariton\ARQUIVOS MESTRADO\LIN LOG 2014 completo2 rdr mod R.asc

Warning: LTspice supports BSIM3 version 3.3.0. Your model specified an unrecognized version: 3.11
Warning: Pd = 0 is less than W.
Warning: Ps = 0 is less than W.
Warning: LTspice supports BSIM3 version 3.3.0. Your model specified an unrecognized version: 3.11
Warning: Pd = 0 is less than W.
Warning: Ps = 0 is less than W.
Direct Newton iteration for .op point succeeded.

Date: Thu Jan 14 10:17:10 2021
Total elapsed time: 0.274 seconds.

tnom = 27
temp = 27
method = modified trap
totiter = 4145
traniter = 4122
tranpoints = 1796
accept = 1579
rejected = 217
matrix size = 19
fillins = 2
solver = Normal
Matrix Compiler1: 1,78 KB object code size  1.0/0.6/[0.5]
Matrix Compiler2: off  [0.6]/0.7/0.7


