Stray ".ends" card: .ends
Circuit: * C:\Users\WARITON\Documents\Wariton\ARQUIVOS MESTRADO\RDR controle.asc

Direct Newton iteration for .op point succeeded.

Date: Wed Dec 30 15:04:43 2020
Total elapsed time: 0.210 seconds.

tnom = 27
temp = 27
method = modified trap
totiter = 2924
traniter = 2918
tranpoints = 1378
accept = 1290
rejected = 88
matrix size = 7
fillins = 0
solver = Normal
Matrix Compiler1: 232 bytes object code size  0.1/0.1/[0.1]
Matrix Compiler2: 489 bytes object code size  0.1/0.1/[0.1]


