Stray ".ends" card: .ends
Circuit: * C:\Users\WARITON\Documents\Wariton\ARQUIVOS MESTRADO\RDR NOVO.asc

Warning: LTspice supports BSIM3 version 3.3.0. Your model specified an unrecognized version: 3.11
Warning: Pd = 0 is less than W.
Warning: Ps = 0 is less than W.
Warning: LTspice supports BSIM3 version 3.3.0. Your model specified an unrecognized version: 3.11
Warning: Pd = 0 is less than W.
Warning: Ps = 0 is less than W.
Direct Newton iteration for .op point succeeded.

Date: Sat Jan 02 14:18:16 2021
Total elapsed time: 0.167 seconds.

tnom = 27
temp = 27
method = modified trap
totiter = 3309
traniter = 3299
tranpoints = 1495
accept = 1365
rejected = 130
matrix size = 7
fillins = 0
solver = Normal
Matrix Compiler1: 366 bytes object code size  0.2/0.1/[0.1]
Matrix Compiler2: 657 bytes object code size  0.1/0.1/[0.1]


