Circuit: * C:\Users\WARITON\Documents\Wariton\ARQUIVOS MESTRADO\RDR com divisor.asc

Direct Newton iteration for .op point succeeded.

Date: Thu Aug 06 09:21:19 2020
Total elapsed time: 0.050 seconds.

tnom = 27
temp = 27
method = modified trap
totiter = 2919
traniter = 2913
tranpoints = 1378
accept = 1290
rejected = 88
matrix size = 6
fillins = 0
solver = Normal
Matrix Compiler1: 200 bytes object code size  0.1/0.1/[0.1]
Matrix Compiler2: 482 bytes object code size  0.1/0.1/[0.1]


