Stray ".ends" card: .ends
Circuit: * C:\Users\WARITON\Documents\Wariton\ARQUIVOS MESTRADO\RST NOVO.asc

Warning: LTspice supports BSIM3 version 3.3.0. Your model specified an unrecognized version: 3.11
Warning: Pd = 0 is less than W.
Warning: Ps = 0 is less than W.
Warning: LTspice supports BSIM3 version 3.3.0. Your model specified an unrecognized version: 3.11
Warning: Pd = 0 is less than W.
Warning: Ps = 0 is less than W.
Direct Newton iteration for .op point succeeded.

Date: Sun Jan 17 08:25:00 2021
Total elapsed time: 0.357 seconds.

tnom = 27
temp = 27
method = modified trap
totiter = 3297
traniter = 3287
tranpoints = 1488
accept = 1371
rejected = 117
matrix size = 8
fillins = 0
solver = Normal
Matrix Compiler1: 478 bytes object code size  0.4/0.3/[0.2]
Matrix Compiler2: 774 bytes object code size  0.3/0.4/[0.3]


