Circuit: * C:\Users\WARITON\Documents\Wariton\ARQUIVOS MESTRADO\Draft1.asc

Direct Newton iteration for .op point succeeded.

Date: Mon Aug 17 15:08:14 2020
Total elapsed time: 0.092 seconds.

tnom = 27
temp = 27
method = modified trap
totiter = 2085
traniter = 2082
tranpoints = 1042
accept = 1042
rejected = 0
matrix size = 4
fillins = 0
solver = Normal
Matrix Compiler1: 82 bytes object code size  0.1/0.1/[0.1]
Matrix Compiler2: 248 bytes object code size  0.1/0.2/[0.1]


